/batch
/config,noeldb,1     ! force off writing results to database
*get,_wallstrt,active,,time,wall
! ANSYS input file written by Workbench version 2025 R1
! File used for geometry attach: C:\Users\018219877\Downloads\Part1.STEP
/title,--Transient Thermal
! ****** Begin Custom Load Command Snippet ******
/COM, ACT Extensions:
/COM,     LSDYNA, 2025.1
/COM,     5f463412-bd3e-484b-87e7-cbc0a665e474, wbex
/COM,/COM,     ANSYSMotion, 2025.1
/COM,     20180725-3f81-49eb-9f31-41364844c769, wbex
/COM,
! ****** End   Custom Load Command Snippet ******
*DIM,_wb_ProjectScratch_dir,string,248
_wb_ProjectScratch_dir(1) = 'C:\Users\018219877\Downloads\LBPF\ANSYS\lpbfsim_Mech_Files\TransientThermal_2\'
*DIM,_wb_SolverFiles_dir,string,248
_wb_SolverFiles_dir(1) = 'C:\Users\018219877\Downloads\LBPF\ANSYS\lpbfsim_Mech_Files\TransientThermal_2\'
*DIM,_wb_userfiles_dir,string,248
_wb_userfiles_dir(1) = 'C:\Users\018219877\Downloads\LBPF\ANSYS\lpbfsim_Mech_Files\UserFiles\'
/com,--- Data in consistent MKS units. See Solving Units in the help system for more information.
/units,MKS
/nopr
/wb,file,start              !  signify a WB generated input file
/prep7
! Turn off shape checking because checks already performed inside WB mesher.
! See help system for more information.
SHPP,OFF,,NOWARN
/nolist
etcon,set             ! allow ANSYS to choose best KEYOP's for 180x elements, resets any applicable keyopt to MAPDL defaults
/com,*********** Nodes for the whole assembly ***********
nblock,3,,14822
(1i9,3e20.9e3)
     4236     4.500000000E-03     4.500000000E-03    -5.000000000E-04
     4237     4.500000000E-03     4.500000000E-03    -1.000000000E-03
     4238     4.500000000E-03     4.500000000E-03    -1.500000000E-03
     4239     4.000000000E-03     4.500000000E-03    -5.000000000E-04
     4240     4.000000000E-03     4.500000000E-03    -1.000000000E-03
     4241     4.000000000E-03     4.500000000E-03    -1.500000000E-03
     4242     3.500000000E-03     4.500000000E-03    -5.000000000E-04
     4243     3.500000000E-03     4.500000000E-03    -1.000000000E-03
     4244     3.500000000E-03     4.500000000E-03    -1.500000000E-03
     4245     3.000000000E-03     4.500000000E-03    -5.000000000E-04
     4246     3.000000000E-03     4.500000000E-03    -1.000000000E-03
     4247     3.000000000E-03     4.500000000E-03    -1.500000000E-03
     4248     2.500000000E-03     4.500000000E-03    -5.000000000E-04
     4249     2.500000000E-03     4.500000000E-03    -1.000000000E-03
     4250     2.500000000E-03     4.500000000E-03    -1.500000000E-03
     4251     2.000000000E-03     4.500000000E-03    -5.000000000E-04
     4252     2.000000000E-03     4.500000000E-03    -1.000000000E-03
     4253     2.000000000E-03     4.500000000E-03    -1.500000000E-03
     4254     1.500000000E-03     4.500000000E-03    -5.000000000E-04
     4255     1.500000000E-03     4.500000000E-03    -1.000000000E-03
! ... 13456 like lines cut
/wb,elem,start            !  set before creation of elements
/com,*********** Elements for Body 1 'Part1|part' ***********
et,1,278
eblock,19,solid,,3440
(19i9)
        1        1        1        1        0        0        0        0        8        0        1     4103     4092     4091     4102     4235     4224     4223     4234
        1        1        1        1        0        0        0        0        8        0        2     4102     4091     4090     4101     4234     4223     4222     4233
        1        1        1        1        0        0        0        0        8        0        3     4101     4090     4089     4100     4233     4222     4221     4232
        1        1        1        1        0        0        0        0        8        0        4     4100     4089     4088     4099     4232     4221     4220     4231
        1        1        1        1        0        0        0        0        8        0        5     4099     4088     4087     4098     4231     4220     4219     4230
        1        1        1        1        0        0        0        0        8        0        6     4098     4087     4086     4097     4230     4219     4218     4229
        1        1        1        1        0        0        0        0        8        0        7     4097     4086     4085     4096     4229     4218     4217     4228
        1        1        1        1        0        0        0        0        8        0        8     4096     4085     4084     4095     4228     4217     4216     4227
        1        1        1        1        0        0        0        0        8        0        9     4095     4084     4083     4094     4227     4216     4215     4226
        1        1        1        1        0        0        0        0        8        0       10     4094     4083     4082     4093     4226     4215     4214     4225
        1        1        1        1        0        0        0        0        8        0       11     4092     4081     4080     4091     4224     4213     4212     4223
        1        1        1        1        0        0        0        0        8        0       12     4091     4080     4079     4090     4223     4212     4211     4222
        1        1        1        1        0        0        0        0        8        0       13     4090     4079     4078     4089     4222     4211     4210     4221
        1        1        1        1        0        0        0        0        8        0       14     4089     4078     4077     4088     4221     4210     4209     4220
        1        1        1        1        0        0        0        0        8        0       15     4088     4077     4076     4087     4220     4209     4208     4219
        1        1        1        1        0        0        0        0        8        0       16     4087     4076     4075     4086     4219     4208     4207     4218
        1        1        1        1        0        0        0        0        8        0       17     4086     4075     4074     4085     4218     4207     4206     4217
        1        1        1        1        0        0        0        0        8        0       18     4085     4074     4073     4084     4217     4206     4205     4216
        1        1        1        1        0        0        0        0        8        0       19     4084     4073     4072     4083     4216     4205     4204     4215
        1        1        1        1        0        0        0        0        8        0       20     4083     4072     4071     4082     4215     4204     4203     4214
! ... 3421 like lines cut
! Material Id = {B253AAD9-F5F5-474C-ABBD-6AE45915D5A6}
/com,*********** Elements for Body 2 'Support' ***********
et,2,278
eblock,19,solid,,948
(19i9)
        2        2        1        2        0        0        0        0        8        0     7649     4192     4060     4071     4203    12407    12405    12406    12408
        2        2        1        2        0        0        0        0        8        0     7650    12407    12405    12406    12408    12411    12409    12410    12412
        2        2        1        2        0        0        0        0        8        0     7651    12411    12409    12410    12412    12415    12413    12414    12416
        2        2        1        2        0        0        0        0        8        0     7652     4181     4049     4060     4192    12418    12417    12405    12407
        2        2        1        2        0        0        0        0        8        0     7653    12418    12417    12405    12407    12420    12419    12409    12411
        2        2        1        2        0        0        0        0        8        0     7654    12420    12419    12409    12411    12422    12421    12413    12415
        2        2        1        2        0        0        0        0        8        0     7655     4170     4038     4049     4181    12424    12423    12417    12418
        2        2        1        2        0        0        0        0        8        0     7656    12424    12423    12417    12418    12426    12425    12419    12420
        2        2        1        2        0        0        0        0        8        0     7657    12426    12425    12419    12420    12428    12427    12421    12422
        2        2        1        2        0        0        0        0        8        0     7658     4159     4027     4038     4170    12430    12429    12423    12424
        2        2        1        2        0        0        0        0        8        0     7659    12430    12429    12423    12424    12432    12431    12425    12426
        2        2        1        2        0        0        0        0        8        0     7660    12432    12431    12425    12426    12434    12433    12427    12428
        2        2        1        2        0        0        0        0        8        0     7661     4148     4016     4027     4159    12436    12435    12429    12430
        2        2        1        2        0        0        0        0        8        0     7662    12436    12435    12429    12430    12438    12437    12431    12432
        2        2        1        2        0        0        0        0        8        0     7663    12438    12437    12431    12432    12440    12439    12433    12434
        2        2        1        2        0        0        0        0        8        0     7664     4137     4005     4016     4148    12442    12441    12435    12436
        2        2        1        2        0        0        0        0        8        0     7665    12442    12441    12435    12436    12444    12443    12437    12438
        2        2        1        2        0        0        0        0        8        0     7666    12444    12443    12437    12438    12446    12445    12439    12440
        2        2        1        2        0        0        0        0        8        0     7667     4082     3917     3928     4093    12449    12447    12448    12450
        2        2        1        2        0        0        0        0        8        0     7668    12449    12447    12448    12450    12453    12451    12452    12454
! ... 929 like lines cut
! Material Id = {11D7FF11-3426-46D0-B74D-F2A385616B73}
/com,*********** Elements for Body 3 'Part1|base' ***********
et,3,279
eblock,19,solid,,1600
(19i9)
        3        3        3        3        0        0        0        0       20        0     3441     4236     6303     6282     6205     5679     6342     6281     6280
     6446    12132    11999     6445    10924    12130    12128    10923     6444    12192    12129    11998
        3        3        3        3        0        0        0        0       20        0     3442     4236     6205     6282     6303     4237     6224     6283     6322
     6445    11999    12132     6446     6450    12055    12134     6451     6441    11997    12131    12191
        3        3        3        3        0        0        0        0       20        0     3443     4237     6224     6283     6322     4238     6243     6284     6341
     6450    12055    12134     6451     6455    12092    12135     6456     6447    12054    12133    12230
        3        3        3        3        0        0        0        0       20        0     3444     4238     6243     6284     6341     5680     6081     6080     6079
     6455    12092    12135     6456    10928    11764    11762    10927     6454    11767    11765    11763
        3        3        3        3        0        0        0        0       20        0     3445     4236     4293     6302     6303     5679     5660     6343     6342
     6443     6695    12188     6446    10884    10885    12250    10924     6444     6694    12190    12192
        3        3        3        3        0        0        0        0       20        0     3446     4236     6303     6302     4293     4237     6322     6321     4294
     6446    12188     6695     6443     6451    12228     6699     6449     6441    12191    12189     6691
        3        3        3        3        0        0        0        0       20        0     3447     4237     6322     6321     4294     4238     6341     6340     4295
     6451    12228     6699     6449     6456    12249     6703     6453     6447    12230    12229     6696
        3        3        3        3        0        0        0        0       20        0     3448     4238     6341     6340     4295     5680     6079     6078     5699
     6456    12249     6703     6453    10927    11760    10985    10926     6454    11763    11761     6702
        3        3        3        3        0        0        0        0       20        0     3449     4293     4350     6301     6302     5660     5641     6344     6343
     6693     6888    12185     6695    10845    10846    12251    10885     6694     6887    12187    12190
        3        3        3        3        0        0        0        0       20        0     3450     4293     6302     6301     4350     4294     6321     6320     4351
     6695    12185     6888     6693     6699    12226     6892     6698     6691    12189    12186     6884
! ... 3181 like lines cut
! Material Id = {32C8BF8B-7049-48C8-8B3E-B56085157C91}
/wb,elem,end               !  done creating elements
/com,*********** Send User Defined Coordinate System(s) ***********
csys,0
toffst,273.15,      ! Temperature offset from absolute zero
/wb,mat,start              !  starting to send materials
/com,*********** Send Materials ***********
Temperature = 'TEMP' ! Temperature
MPTEMP,,,,,,,,
MPTEMP,1,20
MPTEMP,2,227
MPTEMP,3,427
MPTEMP,4,727
MPTEMP,5,927
MPTEMP,6,1127
MPTEMP,7,1260
MPTEMP,8,1344
MPTEMP,9,1450
MPTEMP,10,1527
MPTEMP,11,1827
MPDATA,DENS,1, ,8220,8121,8048,7961,7875,7787,
MPDATA,DENS,1, ,7733,7579,7488,7488,7341,	! kg m^-3
MPTEMP,,,,,,,,
MPTEMP,,,,,,,,
MPTEMP,1,427
MPTEMP,2,538
MPTEMP,3,649
MPTEMP,4,871
MPTEMP,5,1093
MPTEMP,6,1827
MPDATA,ALPX,1, ,1.436e-05,1.49e-05,1.543e-05,1.745e-05,1.834e-05,1.834e-05,	! C^-1
MPTEMP,,,,,,,,
MPAMOD,1,20,	! C
MPTEMP,,,,,,,,
MPTEMP,1,21
MPTEMP,2,537
MPTEMP,3,815
MPTEMP,4,982
MPTEMP,5,1093
MPDATA,EX,1, ,165000000000,152000000000,110000000000,55000000000,34000000000,	! Pa
MPTEMP,,,,,,,,
MPTEMP,,,,,,,,
MPTEMP,1,21
MPTEMP,2,537
MPTEMP,3,815
MPTEMP,4,982
MPTEMP,5,1093
MPDATA,NUXY,1, ,0.3,0.28,0.323,0.368,0.4,
MPTEMP,,,,,,,,

TB,BISO,1,5,
TBTEMP,21
TBDATA,1,648000000,3000000000
TBTEMP,538
TBDATA,1,558000000,2760000000
TBTEMP,816
TBDATA,1,338000000,10000000
TBTEMP,982
TBDATA,1,90000000,10000000
TBTEMP,1093
TBDATA,1,34000000,10000000
MPTEMP,,,,,,,,
MPTEMP,1,22
MPTEMP,2,233
MPTEMP,3,448
MPTEMP,4,657
MPTEMP,5,866
MPTEMP,6,1079
MPTEMP,7,1289
MPTEMP,8,1500
MPDATA,KXX,1, ,11.9,13.7,16.9,21.7,25.6,22.9,
MPDATA,KXX,1, ,19.1,17.7,	! W m^-1 C^-1
MPTEMP,,,,,,,,
MPTEMP,,,,,,,,
MPTEMP,1,20
MPTEMP,2,100
MPTEMP,3,200
MPTEMP,4,300
MPTEMP,5,400
MPTEMP,6,500
MPTEMP,7,600
MPTEMP,8,700
MPTEMP,9,800
MPTEMP,10,850
MPTEMP,11,900
MPTEMP,12,1000
MPTEMP,13,1100
MPTEMP,14,1500
MPDATA,C,1, ,421,442,453,472,481,502,
MPDATA,C,1, ,527,562,606,628,636,647,
MPDATA,C,1, ,651,652,	! J kg^-1 C^-1
MPTEMP,,,,,,,,
MP,UVID,1,b20624ef-b0ba-4cb5-8724-8b51d2bc4f57
MP,UMID,1,868de7f0-fd64-46c3-979b-b3761922d0e0

Temperature = 'TEMP' ! Temperature
MPTEMP,,,,,,,,
MPTEMP,1,20
MPTEMP,2,227
MPTEMP,3,427
MPTEMP,4,727
MPTEMP,5,927
MPTEMP,6,1127
MPTEMP,7,1260
MPTEMP,8,1344
MPTEMP,9,1450
MPTEMP,10,1527
MPTEMP,11,1827
MPDATA,DENS,2, ,8220,8121,8048,7961,7875,7787,
MPDATA,DENS,2, ,7733,7579,7488,7488,7341,	! kg m^-3
MPTEMP,,,,,,,,
MPTEMP,,,,,,,,
MPTEMP,1,427
MPTEMP,2,538
MPTEMP,3,649
MPTEMP,4,871
MPTEMP,5,1093
MPTEMP,6,1827
MPDATA,ALPX,2, ,1.436e-05,1.49e-05,1.543e-05,1.745e-05,1.834e-05,1.834e-05,	! C^-1
MPTEMP,,,,,,,,
MPAMOD,2,20,	! C
MPTEMP,,,,,,,,
MPTEMP,1,21
MPTEMP,2,537
MPTEMP,3,815
MPTEMP,4,982
MPTEMP,5,1093
MPDATA,EX,2, ,165000000000,152000000000,110000000000,55000000000,34000000000,	! Pa
MPTEMP,,,,,,,,
MPTEMP,,,,,,,,
MPTEMP,1,21
MPTEMP,2,537
MPTEMP,3,815
MPTEMP,4,982
MPTEMP,5,1093
MPDATA,NUXY,2, ,0.3,0.28,0.323,0.368,0.4,
MPTEMP,,,,,,,,

TB,BISO,2,5,
TBTEMP,21
TBDATA,1,648000000,3000000000
TBTEMP,538
TBDATA,1,558000000,2760000000
TBTEMP,816
TBDATA,1,338000000,10000000
TBTEMP,982
TBDATA,1,90000000,10000000
TBTEMP,1093
TBDATA,1,34000000,10000000
MPTEMP,,,,,,,,
MPTEMP,1,22
MPTEMP,2,233
MPTEMP,3,448
MPTEMP,4,657
MPTEMP,5,866
MPTEMP,6,1079
MPTEMP,7,1289
MPTEMP,8,1500
MPDATA,KXX,2, ,11.9,13.7,16.9,21.7,25.6,22.9,
MPDATA,KXX,2, ,19.1,17.7,	! W m^-1 C^-1
MPTEMP,,,,,,,,
MPTEMP,,,,,,,,
MPTEMP,1,20
MPTEMP,2,100
MPTEMP,3,200
MPTEMP,4,300
MPTEMP,5,400
MPTEMP,6,500
MPTEMP,7,600
MPTEMP,8,700
MPTEMP,9,800
MPTEMP,10,850
MPTEMP,11,900
MPTEMP,12,1000
MPTEMP,13,1100
MPTEMP,14,1500
MPDATA,C,2, ,421,442,453,472,481,502,
MPDATA,C,2, ,527,562,606,628,636,647,
MPDATA,C,2, ,651,652,	! J kg^-1 C^-1
MPTEMP,,,,,,,,
MP,UVID,2,b20624ef-b0ba-4cb5-8724-8b51d2bc4f57
MP,UMID,2,868de7f0-fd64-46c3-979b-b3761922d0e0

Temperature = 'TEMP' ! Temperature
MP,DENS,3,7850,	! kg m^-3
MP,ALPX,3,1.2e-05,	! C^-1
MP,C,3,434,	! J kg^-1 C^-1
MP,KXX,3,60.5,	! W m^-1 C^-1
MP,RSVX,3,1.7e-07,	! kg m^3 A^-2 s^-3
MP,EX,3,200000000000,	! Pa
MP,NUXY,3,0.3,
MP,MURX,3,10000,
MP,UVID,3,8ee57237-e1ec-44eb-96fb-1cb779d592bb
MP,UMID,3,59002a79-71c2-428e-906b-55d7dbee100e

/wb,mat,end                !  done sending materials
!************************* Model Summary ********************
!Part1|part,	Inconel 718,	matid,	1
!Support,	Inconel 718,	matid,	2
!Part1|base,	Structural Steel,	matid,	3
!************************* End Model Summary ********************
! get the diagonal of the bounding box. Needed later for other things
*get,_xmin,node,,mnloc,x
*get,_ymin,node,,mnloc,y
*get,_zmin,node,,mnloc,z
*get,_xmax,node,,mxloc,x
*get,_ymax,node,,mxloc,y
*get,_zmax,node,,mxloc,z
_ASMDIAG=(_xmax-_xmin)*(_xmax-_xmin)+(_ymax-_ymin)*(_ymax-_ymin)+(_zmax-_zmin)*(_zmax-_zmin)
_ASMDIAG=SQRT(_ASMDIAG)
/wb,contact,start          !  starting to send contact
/wb,contact,end            !  done creating contacts
/golist
/wb,load,start             !  starting to send loads
/com,*********** Define Temperature Constraint ***********
CMBLOCK,_CM81   ,NODE,      289
(8i10)
      6041      6042      6043      6044      6045      6046      6047      6048
      6049      6050      6051      6052      6053      6054      6055      6056
      6057      6058      6059      6060      6120      6197      6198      6199
      6200      6361      6362      6363      6364      6365      6366      6367
      6368      6369      6370      6371      6372      6373      6374      6375
      6376      6377      6378      6379      6380      6381      6382      6383
      6384      6385      6386      6387      6388      6389      6390      6391
      6392      6393      6394      6395      6396      6397      6398      6399
      6400      6401      6402      6403      6404      6405      6406      6407
      6408      6409      6410      6411      6412      6413      6414      6415
      6416      6417      6418      6419      6420      6421      6422      6423
      6424      6425      6426      6427      6428      6429      6430      6431
      6432      6433      6434      6435      6436      6437      6438      6439
      6440     11685     11686     11687     11688     11689     11690     11691
     11692     11693     11694     11695     11696     11697     11698     11699
     11700     11701     11702     11703     11704     11705     11706     11707
     11708     11709     11710     11711     11712     11713     11714     11715
     11716     11717     11718     11719     11720     11721     11722     11723
     11725     11844     11982     11983     11984     11985     11986     11987
     11988     12269     12270     12271     12272     12273     12274     12275
! ... 17 like lines cut
fcum,add                   ! add nodal forces up (needed in case have loads on the same edge,vertex)
fcum                       ! reset default on fcum command since done sending WB F loads
/com,***************** Define Uniform Initial temperature ***************
tunif,22.
/com, **** Start sending components for AM Supports ****
CMBLOCK,_CMAMSUPPORT1,ELEM,      948
(8i10)
      7649      7650      7651      7652      7653      7654      7655      7656
      7657      7658      7659      7660      7661      7662      7663      7664
      7665      7666      7667      7668      7669      7670      7671      7672
      7673      7674      7675      7676      7677      7678      7679      7680
      7681      7682      7683      7684      7685      7686      7687      7688
      7689      7690      7691      7692      7693      7694      7695      7696
      7697      7698      7699      7700      7701      7702      7703      7704
      7705      7706      7707      7708      7709      7710      7711      7712
      7713      7714      7715      7716      7717      7718      7719      7720
      7721      7722      7723      7724      7725      7726      7727      7728
      7729      7730      7731      7732      7733      7734      7735      7736
      7737      7738      7739      7740      7741      7742      7743      7744
      7745      7746      7747      7748      7749      7750      7751      7752
      7753      7754      7755      7756      7757      7758      7759      7760
      7761      7762      7763      7764      7765      7766      7767      7768
      7769      7770      7771      7772      7773      7774      7775      7776
      7777      7778      7779      7780      7781      7782      7783      7784
      7785      7786      7787      7788      7789      7790      7791      7792
      7793      7794      7795      7796      7797      7798      7799      7800
      7801      7802      7803      7804      7805      7806      7807      7808
! ... 99 like lines cut
cmsel,s,_CMAMSUPPORT1
esel,all
/com, **** Done sending components for AM Supports ****
/gst,on,on
fini
*get,_numnode,node,0,count
*get,_numelem,elem,0,count
*get, _MAXELEMNUM, elem, 0, NUM, MAX
*get, _MAXNODENUM, node, 0, NUM, MAX
*get, _MAXELEMTYPE, etyp, 0, NUM, MAX
*get, _MAXREALCONST, rcon, 0, NUM, MAX
/go
/wb,load,end               !  done creating loads
/com,--- Number of total nodes = %_numnode%
/com,--- Number of contact elements = 0
/com,--- Number of spring elements = 0
/com,--- Number of bearing elements = 0
/com,--- Number of solid elements = 5988
/com,--- Number of condensed parts = 0
/com,--- Number of total elements = %_numelem%
*get,_wallbsol,active,,time,wall
/com,****************************************************************************
/com,*************************    SOLUTION       ********************************
/com,****************************************************************************
/solu
antype,4                   ! transient analysis
kbc,1                      ! stepped BC's
!eqsl,sparse               ! using sparse solver which is default so no eqsl command needed
cntr,print,1               ! print out contact info and also make no initial contact an error
cncheck,dmp		!	Enable program controlled contact splitting for distributed memory parallel run
rescontrol,,none                 ! Do not keep any restart files
dmpoption,emat,no             ! Don't combine emat file for DANSYS
dmpoption,esav,no             ! Don't combine esav file for DANSYS

/com,*********** Send AM Knockdown Factors ***********
*create,knockdown,ist
/dtyp,kdel

*end
inistate,read,knockdown,ist
/delete,knockdown,ist
! End of Sending AM Knockdown Factors
/com,*********** Send AM Build Options ***********
amtype,pbf          ! Additive Manufacturing process type
ambuild,plate,0.    ! Send top of build plate location
ammat,1,1260.       ! Send melting temperature for build Body
ammat,2,1260.       ! Send melting temperature for support Body
ambuild,layert,1.e-004,3.00000005960464e-004      ! deposition thickness and layer height
ambuild,scan,1.e-004,1000.    ! hatch spacing and laser speed
ambeam,1  ! Send number of heat sources
ambuild,time,10.,1. ! time to reset recoater arm, and the dwell time multiple
*dim,suppsect,,1    ! Send array for support sections
suppsect(1) = 4          ! section value 
sect,4,support,ASEC ! sectype definition for support
secdata,0.5,0.5,0.5,0.5       ! support knockdown factor
amsupport,1,_CMAMSupport,suppsect       ! AMSupport definition
amstep,preheat,120. ! Build Plate Preheat Temperature
! End of Sending AM Build Options
thopt,quasi,5.e-002
nlhist,nsol,MAX_TEMP,temp,max
nlhist,nsol,MIN_TEMP,temp,min
/com,********* Initial Time Increment Check And Fourier Modulus *********
/com, Specified Initial Time Increment: 0.01 
/com, Estimated Increment Needed, le*le/alpha, Body 1: 0.0262023 
/com, Estimated Increment Needed, le*le/alpha, Body 2: 0.0262023 
/com, Estimated Increment Needed, le*le/alpha, Body 3: 0.0140781 
/com,****************************************************
/com,******************* SOLVE FOR LS 1 OF 2 ****************
d,_CM81,temp,80.
/nopr
/gopr
outres,erase
outres,all,none
outres,nsol,all
outres,rsol,all
amres,dtemp,on
cnvtol,heat,,1.e-003,,1.e-006 ! Program Controlled. Set MINREF equivalent of 1e-6 Watts
/com,*********** Send AM Build Conditions Options ***********
amenv,120.,0.       ! Gas Temperature and Convection Coefficient
ampowder,120.,0.,1.e-002      ! Powder Temperature, Convection Coefficient, and factor
! *********** WB SOLVE COMMAND ***********
! check interactive state
*get,ANSINTER_,active,,int
*if,ANSINTER_,ne,0,then
/eof
*endif
amstep,build,,,,    ! perform the layer-by-layer build
/com *************** Write FE CONNECTORS ********* 
CEWRITE,file,ce,,INTE
/com,****************************************************
/com,*************** FINISHED SOLVE FOR LS 1 *************
/com,****************************************************
/com,******************* SOLVE FOR LS 2 OF 2 ****************
/nopr
/gopr
outres,erase
outres,all,none
outres,nsol,all
outres,rsol,all
amres,dtemp,on
cnvtol,heat,,1.e-003,,1.e-006 ! Program Controlled. Set MINREF equivalent of 1e-6 Watts
/com,*********** Send AM Cooldown Conditions Options ***********
amenv,22.,20.       ! Gas Temperature and Convection Coefficient
ampowder,22.,5.,1.e-002       ! Powder Temperature, Convection Coefficient
amstep,cooldown,22. ! cool down to room temperature
/com,****************************************************
/com,*************** FINISHED SOLVE FOR LS 2 *************
*get,_wallasol,active,,time,wall
/post1
xmlo,ENCODING,ISO-8859-1
xmlo,parm
/xml,parm,xml
fini
/gopr
*get,_walldone,active,,time,wall
_preptime=(_wallbsol-_wallstrt)*3600
_solvtime=(_wallasol-_wallbsol)*3600
_posttime=(_walldone-_wallasol)*3600
_totaltim=(_walldone-_wallstrt)*3600
*get,_dlbratio,active,0,solu,dlbr
*get,_combtime,active,0,solu,comb
*get,_ssmode,active,0,solu,ssmm
*get,_ndofs,active,0,solu,ndof
/fclean				!clean distributed files
/com,--- Total number of nodes = %_numnode%
/com,--- Total number of elements = %_numelem%
/com,--- Element load balance ratio = %_dlbratio%
/com,--- Time to combine distributed files = %_combtime%
/com,--- Sparse memory mode = %_ssmode%
/com,--- Number of DOF = %_ndofs%
/wb,file,end               ! done with WB generated input
